#
#	File Created by: Spartan '14 Export
#

@<TRIPOS>MOLECULE
M0001
7 5
SMALL
NO_CHARGES


@<TRIPOS>ATOM
    1   H1        -1.559616923     0.000000000     0.229006456       H   1  M0001
    2   C2        -0.491021431     0.000000000    -0.046238915     C.2   1  M0001
    3   O3        -0.090313465     0.000000000    -1.209425235     O.2   1  M0001
    4   N4         0.335295723     0.000000000     1.028372111    N.am   1  M0001
    5   H5         1.342723946     0.000000000     0.928815964       H   1  M0001
    6   H6        -0.025690609     0.000000000     1.977563498       H   1  M0001
    7   Li7        0.488622758     0.000000000    -2.908093879      Li   1  M0001


@<TRIPOS>BOND
    1      1      2    1
    2      2      3    2
    3      2      4    am
    4      4      5    1
    5      4      6    1
