#
#	File Created by: Spartan '14 Export
#

@<TRIPOS>MOLECULE
M0001
6 5
SMALL
NO_CHARGES


@<TRIPOS>ATOM
    1   H1         0.471641479     0.000000000    -1.423980458       H   1  M0001
    2   C2         0.580101955     0.000000000    -0.327399009     C.2   1  M0001
    3   O3         1.657876472     0.000000000     0.245827759     O.2   1  M0001
    4   N4        -0.611402399     0.000000000     0.325699570    N.am   1  M0001
    5   H5        -0.600154584     0.000000000     1.337291684       H   1  M0001
    6   H6        -1.498062923     0.000000000    -0.157439545       H   1  M0001


@<TRIPOS>BOND
    1      1      2    1
    2      2      3    2
    3      2      4    am
    4      4      5    1
    5      4      6    1
